#
# Generated from file mech.dat
# by ck2cti on Fri Aug 24 15:33:28 2012
#
units(length = "cm", time = "s", quantity = "mol", act_energy = "cal/mol")


ideal_gas(name = "gas",
      elements = " H  C  O  N ",
      species = """ nc7h16  o2  n2  co2  h2o  co  h2  oh  h2o2  ho2 
                   h  o  ch3o  ch2o  hco  ch2  ch3  ch4  c2h2  c2h3 
                   c2h4  c2h5  c3h4  c3h5  c3h6  c3h7  c7h15-2  c7h15o2  c7ket12  c5h11co 
                   n  n2o  no  no2  ic8h18  c8h17  c8h17oo  ic8ket21  c6h13co  c4h9 
                   c2h6  ch2cho  ch2co  ch3o2  ch3o2h  soot """,
      reactions = "all",
      initial_state = state(temperature = 300.0,
                        pressure = OneAtm)    )



#-------------------------------------------------------------------------------
#  Species data 
#-------------------------------------------------------------------------------

species(name = "nc7h16",
    atoms = " C:7  H:16 ",
    thermo = (
       NASA( [  300.00,  1391.00], [-1.268361870E+000,  8.543558200E-002, 
              -5.253467860E-005,  1.629457210E-008, -2.023949250E-012,
              -2.565865650E+004,  3.537329120E+001] ),
       NASA( [ 1391.00,  5000.00], [ 2.221489690E+001,  3.476757500E-002, 
              -1.184071290E-005,  1.832984780E-009, -1.061302660E-013,
              -3.427600810E+004, -9.230401960E+001] )
             ),
    note = "2/10/95"
       )

species(name = "o2",
    atoms = " O:2 ",
    thermo = (
       NASA( [  300.00,  1000.00], [ 3.212936000E+000,  1.127486000E-003, 
              -5.756150000E-007,  1.313877000E-009, -8.768554000E-013,
              -1.005249000E+003,  6.034738000E+000] ),
       NASA( [ 1000.00,  5000.00], [ 3.697578000E+000,  6.135197000E-004, 
              -1.258842000E-007,  1.775281000E-011, -1.136435000E-015,
              -1.233930000E+003,  3.189166000E+000] )
             ),
    note = "121386"
       )

species(name = "n2",
    atoms = " N:2 ",
    thermo = (
       NASA( [  300.00,  1000.00], [ 3.298677000E+000,  1.408240000E-003, 
              -3.963222000E-006,  5.641515000E-009, -2.444855000E-012,
              -1.020900000E+003,  3.950372000E+000] ),
       NASA( [ 1000.00,  5000.00], [ 2.926640000E+000,  1.487977000E-003, 
              -5.684761000E-007,  1.009704000E-010, -6.753351000E-015,
              -9.227977000E+002,  5.980528000E+000] )
             ),
    note = "121286"
       )

species(name = "co2",
    atoms = " C:1  O:2 ",
    thermo = (
       NASA( [  300.00,  1000.00], [ 2.275725000E+000,  9.922072000E-003, 
              -1.040911000E-005,  6.866687000E-009, -2.117280000E-012,
              -4.837314000E+004,  1.018849000E+001] ),
       NASA( [ 1000.00,  5000.00], [ 4.453623000E+000,  3.140169000E-003, 
              -1.278411000E-006,  2.393997000E-010, -1.669033000E-014,
              -4.896696000E+004, -9.553959000E-001] )
             ),
    note = "121286"
       )

species(name = "h2o",
    atoms = " H:2  O:1 ",
    thermo = (
       NASA( [  300.00,  1000.00], [ 3.386842000E+000,  3.474982000E-003, 
              -6.354696000E-006,  6.968581000E-009, -2.506588000E-012,
              -3.020811000E+004,  2.590233000E+000] ),
       NASA( [ 1000.00,  5000.00], [ 2.672146000E+000,  3.056293000E-003, 
              -8.730260000E-007,  1.200996000E-010, -6.391618000E-015,
              -2.989921000E+004,  6.862817000E+000] )
             ),
    note = "20387"
       )

species(name = "co",
    atoms = " C:1  O:1 ",
    thermo = (
       NASA( [  300.00,  1000.00], [ 3.262452000E+000,  1.511941000E-003, 
              -3.881755000E-006,  5.581944000E-009, -2.474951000E-012,
              -1.431054000E+004,  4.848897000E+000] ),
       NASA( [ 1000.00,  5000.00], [ 3.025078000E+000,  1.442689000E-003, 
              -5.630828000E-007,  1.018581000E-010, -6.910952000E-015,
              -1.426835000E+004,  6.108218000E+000] )
             ),
    note = "121286"
       )

species(name = "h2",
    atoms = " H:2 ",
    thermo = (
       NASA( [  300.00,  1000.00], [ 3.298124000E+000,  8.249442000E-004, 
              -8.143015000E-007, -9.475434000E-011,  4.134872000E-013,
              -1.012521000E+003, -3.294094000E+000] ),
       NASA( [ 1000.00,  5000.00], [ 2.991423000E+000,  7.000644000E-004, 
              -5.633829000E-008, -9.231578000E-012,  1.582752000E-015,
              -8.350340000E+002, -1.355110000E+000] )
             ),
    note = "121286"
       )

species(name = "oh",
    atoms = " O:1  H:1 ",
    thermo = (
       NASA( [  300.00,  1000.00], [ 3.637266000E+000,  1.850910000E-004, 
              -1.676165000E-006,  2.387203000E-009, -8.431442000E-013,
               3.606782000E+003,  1.358860000E+000] ),
       NASA( [ 1000.00,  5000.00], [ 2.882730000E+000,  1.013974000E-003, 
              -2.276877000E-007,  2.174684000E-011, -5.126305000E-016,
               3.886888000E+003,  5.595712000E+000] )
             ),
    note = "121286"
       )

species(name = "h2o2",
    atoms = " H:2  O:2 ",
    thermo = (
       NASA( [  300.00,  1000.00], [ 3.388754000E+000,  6.569226000E-003, 
              -1.485013000E-007, -4.625806000E-009,  2.471515000E-012,
              -1.766315000E+004,  6.785363000E+000] ),
       NASA( [ 1000.00,  5000.00], [ 4.573167000E+000,  4.336136000E-003, 
              -1.474689000E-006,  2.348904000E-010, -1.431654000E-014,
              -1.800696000E+004,  5.011370000E-001] )
             ),
    note = "120186"
       )

species(name = "ho2",
    atoms = " H:1  O:2 ",
    thermo = (
       NASA( [  300.00,  1000.00], [ 2.979963000E+000,  4.996697000E-003, 
              -3.790997000E-006,  2.354192000E-009, -8.089024000E-013,
               1.762274000E+002,  9.222724000E+000] ),
       NASA( [ 1000.00,  5000.00], [ 4.072191000E+000,  2.131296000E-003, 
              -5.308145000E-007,  6.112269000E-011, -2.841165000E-015,
              -1.579727000E+002,  3.476029000E+000] )
             ),
    note = "20387"
       )

species(name = "h",
    atoms = " H:1 ",
    thermo = (
       NASA( [  300.00,  1000.00], [ 2.500000000E+000,  0.000000000E+000, 
               0.000000000E+000,  0.000000000E+000,  0.000000000E+000,
               2.547163000E+004, -4.601176000E-001] ),
       NASA( [ 1000.00,  5000.00], [ 2.500000000E+000,  0.000000000E+000, 
               0.000000000E+000,  0.000000000E+000,  0.000000000E+000,
               2.547163000E+004, -4.601176000E-001] )
             ),
    note = "120186"
       )

species(name = "o",
    atoms = " O:1 ",
    thermo = (
       NASA( [  300.00,  1000.00], [ 2.946429000E+000, -1.638166000E-003, 
               2.421032000E-006, -1.602843000E-009,  3.890696000E-013,
               2.914764000E+004,  2.963995000E+000] ),
       NASA( [ 1000.00,  5000.00], [ 2.542060000E+000, -2.755062000E-005, 
              -3.102803000E-009,  4.551067000E-012, -4.368052000E-016,
               2.923080000E+004,  4.920308000E+000] )
             ),
    note = "120186"
       )

species(name = "ch3o",
    atoms = " C:1  H:3  O:1 ",
    thermo = (
       NASA( [  300.00,  1000.00], [ 2.106204000E+000,  7.216595000E-003, 
               5.338472000E-006, -7.377636000E-009,  2.075611000E-012,
               9.786011000E+002,  1.315218000E+001] ),
       NASA( [ 1000.00,  3000.00], [ 3.770800000E+000,  7.871497000E-003, 
              -2.656384000E-006,  3.944431000E-010, -2.112616000E-014,
               1.278325000E+002,  2.929575000E+000] )
             ),
    note = "121686"
       )

species(name = "ch2o",
    atoms = " C:1  H:2  O:1 ",
    thermo = (
       NASA( [  300.00,  1000.00], [ 1.652731000E+000,  1.263144000E-002, 
              -1.888168000E-005,  2.050031000E-008, -8.413237000E-012,
              -1.486540000E+004,  1.378482000E+001] ),
       NASA( [ 1000.00,  5000.00], [ 2.995606000E+000,  6.681321000E-003, 
              -2.628955000E-006,  4.737153000E-010, -3.212517000E-014,
              -1.532037000E+004,  6.912572000E+000] )
             ),
    note = "121286"
       )

species(name = "hco",
    atoms = " H:1  C:1  O:1 ",
    thermo = (
       NASA( [  300.00,  1000.00], [ 2.898330000E+000,  6.199147000E-003, 
              -9.623084000E-006,  1.089825000E-008, -4.574885000E-012,
               4.159922000E+003,  8.983614000E+000] ),
       NASA( [ 1000.00,  5000.00], [ 3.557271000E+000,  3.345573000E-003, 
              -1.335006000E-006,  2.470573000E-010, -1.713851000E-014,
               3.916324000E+003,  5.552299000E+000] )
             ),
    note = "121286"
       )

species(name = "ch2",
    atoms = " C:1  H:2 ",
    thermo = (
       NASA( [  250.00,  1000.00], [ 3.762237000E+000,  1.159819000E-003, 
               2.489585000E-007,  8.800836000E-010, -7.332435000E-013,
               4.536791000E+004,  1.712578000E+000] ),
       NASA( [ 1000.00,  4000.00], [ 3.636408000E+000,  1.933057000E-003, 
              -1.687016000E-007, -1.009899000E-010,  1.808256000E-014,
               4.534134000E+004,  2.156561000E+000] )
             ),
    note = "120186"
       )

species(name = "ch3",
    atoms = " C:1  H:3 ",
    thermo = (
       NASA( [  300.00,  1000.00], [ 2.430443000E+000,  1.112410000E-002, 
              -1.680220000E-005,  1.621829000E-008, -5.864953000E-012,
               1.642378000E+004,  6.789794000E+000] ),
       NASA( [ 1000.00,  5000.00], [ 2.844052000E+000,  6.137974000E-003, 
              -2.230345000E-006,  3.785161000E-010, -2.452159000E-014,
               1.643781000E+004,  5.452697000E+000] )
             ),
    note = "121286"
       )

species(name = "ch4",
    atoms = " C:1  H:4 ",
    thermo = (
       NASA( [  300.00,  1000.00], [ 7.787415000E-001,  1.747668000E-002, 
              -2.783409000E-005,  3.049708000E-008, -1.223931000E-011,
              -9.825229000E+003,  1.372219000E+001] ),
       NASA( [ 1000.00,  5000.00], [ 1.683479000E+000,  1.023724000E-002, 
              -3.875129000E-006,  6.785585000E-010, -4.503423000E-014,
              -1.008079000E+004,  9.623395000E+000] )
             ),
    note = "121286"
       )

species(name = "c2h2",
    atoms = " C:2  H:2 ",
    thermo = (
       NASA( [  300.00,  1000.00], [ 2.013562000E+000,  1.519045000E-002, 
              -1.616319000E-005,  9.078992000E-009, -1.912746000E-012,
               2.612444000E+004,  8.805378000E+000] ),
       NASA( [ 1000.00,  5000.00], [ 4.436770000E+000,  5.376039000E-003, 
              -1.912817000E-006,  3.286379000E-010, -2.156710000E-014,
               2.566766000E+004, -2.800338000E+000] )
             ),
    note = "121386"
       )

species(name = "c2h3",
    atoms = " C:2  H:3 ",
    thermo = (
       NASA( [  300.00,  1000.00], [ 2.459276000E+000,  7.371476000E-003, 
               2.109873000E-006, -1.321642000E-009, -1.184784000E-012,
               3.335225000E+004,  1.155620000E+001] ),
       NASA( [ 1000.00,  5000.00], [ 5.933468000E+000,  4.017746000E-003, 
              -3.966740000E-007, -1.441267000E-010,  2.378644000E-014,
               3.185435000E+004, -8.530313000E+000] )
             ),
    note = "12787"
       )

species(name = "c2h4",
    atoms = " C:2  H:4 ",
    thermo = (
       NASA( [  300.00,  1000.00], [-8.614880000E-001,  2.796163000E-002, 
              -3.388677000E-005,  2.785152000E-008, -9.737879000E-012,
               5.573046000E+003,  2.421149000E+001] ),
       NASA( [ 1000.00,  5000.00], [ 3.528419000E+000,  1.148518000E-002, 
              -4.418385000E-006,  7.844601000E-010, -5.266848000E-014,
               4.428289000E+003,  2.230389000E+000] )
             ),
    note = "121286"
       )

species(name = "c2h5",
    atoms = " C:2  H:5 ",
    thermo = (
       NASA( [  300.00,  1000.00], [ 2.690702000E+000,  8.719133000E-003, 
               4.419839000E-006,  9.338703000E-010, -3.927773000E-012,
               1.287040000E+004,  1.213820000E+001] ),
       NASA( [ 1000.00,  5000.00], [ 7.190480000E+000,  6.484077000E-003, 
              -6.428065000E-007, -2.347879000E-010,  3.880877000E-014,
               1.067455000E+004, -1.478089000E+001] )
             ),
    note = "12387"
       )

species(name = "c3h4",
    atoms = " C:3  H:4 ",
    thermo = (
       NASA( [  200.00,  1000.00], [ 2.613074870E+000,  1.212233710E-002, 
               1.854054000E-005, -3.452584750E-008,  1.533533890E-011,
               2.154156420E+004,  1.025033190E+001] ),
       NASA( [ 1000.00,  6000.00], [ 6.316948690E+000,  1.113362620E-002, 
              -3.962890180E-006,  6.356337750E-010, -3.787498850E-014,
               2.011746170E+004, -1.097188620E+001] )
             ),
    note = "l12/92"
       )

species(name = "c3h5",
    atoms = " C:3  H:5 ",
    thermo = (
       NASA( [  200.00,  1000.00], [ 3.787946930E+000,  9.484143350E-003, 
               2.423433680E-005, -3.656040100E-008,  1.485923560E-011,
               1.862612180E+004,  7.828224990E+000] ),
       NASA( [ 1000.00,  6000.00], [ 6.547611320E+000,  1.331522460E-002, 
              -4.783331000E-006,  7.719498140E-010, -4.619308080E-014,
               1.727147070E+004, -9.274868410E+000] )
             ),
    note = "bur 92"
       )

species(name = "c3h6",
    atoms = " C:3  H:6 ",
    thermo = (
       NASA( [  300.00,  1388.00], [ 3.946154440E-001,  2.891076620E-002, 
              -1.548868080E-005,  3.888142090E-009, -3.378903520E-013,
               1.066881640E+003,  2.190037360E+001] ),
       NASA( [ 1388.00,  5000.00], [ 8.015959580E+000,  1.370236340E-002, 
              -4.662497330E-006,  7.212544020E-010, -4.173701260E-014,
              -1.878212710E+003, -2.001606680E+001] )
             ),
    note = "5/27/97 therm"
       )

species(name = "c3h7",
    atoms = " C:3  H:7 ",
    thermo = (
       NASA( [  300.00,  1000.00], [ 1.051551800E+000,  2.599198000E-002, 
               2.380054000E-006, -1.960956900E-008,  9.373247000E-012,
               1.063186300E+004,  2.112255900E+001] ),
       NASA( [ 1000.00,  5000.00], [ 7.702698700E+000,  1.604420300E-002, 
              -5.283322000E-006,  7.629859000E-010, -3.939228400E-014,
               8.298433600E+003, -1.548018000E+001] )
             ),
    note = "n-l 9/84"
       )

species(name = "c7h15-2",
    atoms = " C:7  H:15 ",
    thermo = (
       NASA( [  300.00,  1382.00], [-3.791557670E-002,  7.567265700E-002, 
              -4.074736340E-005,  9.326789430E-009, -4.923607450E-013,
              -2.356053030E+003,  3.373215060E+001] ),
       NASA( [ 1382.00,  5000.00], [ 2.163688420E+001,  3.233248040E-002, 
              -1.092738070E-005,  1.683570600E-009, -9.717740910E-014,
              -1.058736160E+004, -8.522096530E+001] )
             ),
    note = "2/10/95"
       )

species(name = "c7h15o2",
    atoms = " C:7  H:15  O:2 ",
    thermo = (
       NASA( [  300.00,  1390.00], [ 2.374993340E+000,  8.346519060E-002, 
              -5.138973200E-005,  1.642176620E-008, -2.195052160E-012,
              -1.992379610E+004,  2.530673420E+001] ),
       NASA( [ 1390.00,  5000.00], [ 2.490236890E+001,  3.507169200E-002, 
              -1.204403060E-005,  1.874648220E-009, -1.089477910E-013,
              -2.829760500E+004, -9.739235420E+001] )
             ),
    note = "7/23/98"
       )

species(name = "c7ket12",
    atoms = " C:7  H:14  O:3 ",
    thermo = (
       NASA( [  300.00,  1396.00], [ 5.824336970E-001,  1.012078690E-001, 
              -7.658559960E-005,  3.007386060E-008, -4.829027920E-012,
              -4.680544190E+004,  3.333314490E+001] ),
       NASA( [ 1396.00,  5000.00], [ 2.974729060E+001,  3.066222940E-002, 
              -1.055635900E-005,  1.646273430E-009, -9.581716750E-014,
              -5.668568280E+004, -1.224324900E+002] )
             ),
    note = "7/23/98"
       )

species(name = "c5h11co",
    atoms = " C:6  H:11  O:1 ",
    thermo = (
       NASA( [  300.00,  1383.00], [ 2.144790690E+000,  6.178635630E-002, 
              -3.741346900E-005,  1.132837950E-008, -1.369176980E-012,
              -1.434511720E+004,  2.231280450E+001] ),
       NASA( [ 1383.00,  5000.00], [ 1.947838120E+001,  2.504660290E-002, 
              -8.548613460E-006,  1.325579440E-009, -7.685032960E-014,
              -2.079239370E+004, -7.219955780E+001] )
             ),
    note = "2/29/96"
       )

species(name = "n",
    atoms = " N:1 ",
    thermo = (
       NASA( [  300.00,  1000.00], [ 2.503071000E+000, -2.180018000E-005, 
               5.420529000E-008, -5.647560000E-011,  2.099904000E-014,
               5.609890000E+004,  4.167566000E+000] ),
       NASA( [ 1000.00,  5000.00], [ 2.450268000E+000,  1.066146000E-004, 
              -7.465337000E-008,  1.879652000E-011, -1.025984000E-015,
               5.611604000E+004,  4.448758000E+000] )
             ),
    note = "120186"
       )

species(name = "n2o",
    atoms = " N:2  O:1 ",
    thermo = (
       NASA( [  300.00,  1000.00], [ 2.543058000E+000,  9.492193000E-003, 
              -9.792775000E-006,  6.263845000E-009, -1.901826000E-012,
               8.765100000E+003,  9.511222000E+000] ),
       NASA( [ 1000.00,  5000.00], [ 4.718977000E+000,  2.873714000E-003, 
              -1.197496000E-006,  2.250552000E-010, -1.575337000E-014,
               8.165811000E+003, -1.657250000E+000] )
             ),
    note = "121286"
       )

species(name = "no",
    atoms = " N:1  O:1 ",
    thermo = (
       NASA( [  300.00,  1000.00], [ 3.376542000E+000,  1.253063000E-003, 
              -3.302751000E-006,  5.217810000E-009, -2.446263000E-012,
               9.817961000E+003,  5.829590000E+000] ),
       NASA( [ 1000.00,  5000.00], [ 3.245435000E+000,  1.269138000E-003, 
              -5.015890000E-007,  9.169283000E-011, -6.275419000E-015,
               9.800840000E+003,  6.417294000E+000] )
             ),
    note = "121286"
       )

species(name = "no2",
    atoms = " N:1  O:2 ",
    thermo = (
       NASA( [  300.00,  1000.00], [ 2.670600000E+000,  7.838501000E-003, 
              -8.063865000E-006,  6.161715000E-009, -2.320150000E-012,
               2.896291000E+003,  1.161207000E+001] ),
       NASA( [ 1000.00,  5000.00], [ 4.682859000E+000,  2.462429000E-003, 
              -1.042259000E-006,  1.976902000E-010, -1.391717000E-014,
               2.261292000E+003,  9.885985000E-001] )
             ),
    note = "121286"
       )

species(name = "ic8h18",
    atoms = " C:8  H:18 ",
    thermo = (
       NASA( [  300.00,  1396.00], [-4.208688930E+000,  1.114405810E-001, 
              -7.913465820E-005,  2.924062420E-008, -4.437431910E-012,
              -2.994468750E+004,  4.495217010E+001] ),
       NASA( [ 1396.00,  5000.00], [ 2.713735900E+001,  3.790048900E-002, 
              -1.294373580E-005,  2.007603720E-009, -1.164005800E-013,
              -4.079581770E+004, -1.232774950E+002] )
             ),
    note = "7/20/ 0 therm"
       )

species(name = "c8h17",
    atoms = " C:8  H:17 ",
    thermo = (
       NASA( [  300.00,  1393.00], [-3.091042620E+000,  1.023188960E-001, 
              -6.848588730E-005,  2.301839400E-008, -3.070130800E-012,
              -6.628290690E+003,  4.311739320E+001] ),
       NASA( [ 1393.00,  5000.00], [ 2.645691790E+001,  3.554207520E-002, 
              -1.205209840E-005,  1.860893570E-009, -1.075718940E-013,
              -1.703927910E+004, -1.162455110E+002] )
             ),
    note = "7/20/ 0 therm"
       )

species(name = "c8h17oo",
    atoms = " C:8  H:17  O:2 ",
    thermo = (
       NASA( [  300.00,  1394.00], [-3.070023560E+000,  1.226404380E-001, 
              -9.722027640E-005,  4.091276250E-008, -7.091025470E-012,
              -2.640143080E+004,  4.403456910E+001] ),
       NASA( [ 1394.00,  5000.00], [ 3.093516150E+001,  3.741025640E-002, 
              -1.290709700E-005,  2.015448500E-009, -1.173989110E-013,
              -3.774577530E+004, -1.367308000E+002] )
             ),
    note = "7/20/ 0 therm"
       )

species(name = "ic8ket21",
    atoms = " C:8  H:16  O:3 ",
    thermo = (
       NASA( [  300.00,  1393.00], [-3.657225670E+000,  1.271596770E-001, 
              -1.007326220E-004,  4.133679430E-008, -6.923865750E-012,
              -5.322146680E+004,  5.138865940E+001] ),
       NASA( [ 1393.00,  5000.00], [ 3.368802610E+001,  3.515308150E-002, 
              -1.224496320E-005,  1.924592290E-009, -1.126259300E-013,
              -6.575011900E+004, -1.475500240E+002] )
             ),
    note = "7/20/ 0 therm"
       )

species(name = "c6h13co",
    atoms = " C:7  H:13  O:1 ",
    thermo = (
       NASA( [  300.00,  1389.00], [ 7.181291740E-001,  7.978140210E-002, 
              -5.308785350E-005,  1.831059640E-008, -2.616739620E-012,
              -1.869093660E+004,  2.711267250E+001] ),
       NASA( [ 1389.00,  5000.00], [ 2.324129910E+001,  2.940139460E-002, 
              -1.012108710E-005,  1.578122010E-009, -9.183499760E-014,
              -2.679732040E+004, -9.474602880E+001] )
             ),
    note = "therm"
       )

species(name = "c4h9",
    atoms = " C:4  H:9 ",
    thermo = (
       NASA( [  200.00,  1000.00], [ 3.548852350E+000,  1.787476380E-002, 
               5.007828250E-005, -7.944750710E-008,  3.358023540E-011,
               4.740115880E+003,  1.118493820E+001] ),
       NASA( [ 1000.00,  6000.00], [ 9.430406070E+000,  2.342713490E-002, 
              -8.535991820E-006,  1.397483550E-009, -8.440574560E-014,
               2.142148620E+003, -2.422079940E+001] )
             ),
    note = "p10/84"
       )

species(name = "c2h6",
    atoms = " C:2  H:6 ",
    thermo = (
       NASA( [  300.00,  1000.00], [ 1.462539000E+000,  1.549467000E-002, 
               5.780507000E-006, -1.257832000E-008,  4.586267000E-012,
              -1.123918000E+004,  1.443229000E+001] ),
       NASA( [ 1000.00,  4000.00], [ 4.825938000E+000,  1.384043000E-002, 
              -4.557259000E-006,  6.724967000E-010, -3.598161000E-014,
              -1.271779000E+004, -5.239507000E+000] )
             ),
    note = "121686"
       )

species(name = "ch2cho",
    atoms = " O:1  H:3  C:2 ",
    thermo = (
       NASA( [  300.00,  1000.00], [ 3.409062000E+000,  1.073857000E-002, 
               1.891492000E-006, -7.158583000E-009,  2.867385000E-012,
               1.521477000E+003,  9.558290000E+000] ),
       NASA( [ 1000.00,  5000.00], [ 5.975670000E+000,  8.130591000E-003, 
              -2.743624000E-006,  4.070304000E-010, -2.176017000E-014,
               4.903218000E+002, -5.045251000E+000] )
             ),
    note = "110393"
       )

species(name = "ch2co",
    atoms = " C:2  H:2  O:1 ",
    thermo = (
       NASA( [  300.00,  1000.00], [ 2.974971000E+000,  1.211871000E-002, 
              -2.345046000E-006, -6.466685000E-009,  3.905649000E-012,
              -7.632637000E+003,  8.673553000E+000] ),
       NASA( [ 1000.00,  5000.00], [ 6.038817000E+000,  5.804840000E-003, 
              -1.920954000E-006,  2.794485000E-010, -1.458868000E-014,
              -8.583402000E+003, -7.657581000E+000] )
             ),
    note = "121686"
       )

species(name = "ch3o2",
    atoms = " C:1  H:3  O:2 ",
    thermo = (
       NASA( [  300.00,  1385.00], [ 4.261469060E+000,  1.008735990E-002, 
              -3.215061840E-006,  2.094092670E-010,  4.183391030E-014,
               4.731296530E+002,  6.345990670E+000] ),
       NASA( [ 1385.00,  5000.00], [ 5.957878910E+000,  7.907286260E-003, 
              -2.682462340E-006,  4.138913370E-010, -2.390073300E-014,
              -3.782244680E+002, -3.536951390E+000] )
             ),
    note = "8/ 2/95 therm"
       )

species(name = "ch3o2h",
    atoms = " C:1  H:4  O:2 ",
    thermo = (
       NASA( [  300.00,  1390.00], [ 3.234428170E+000,  1.901297670E-002, 
              -1.133862870E-005,  3.403066530E-009, -4.118302220E-013,
              -1.771979260E+004,  9.759510750E+000] ),
       NASA( [ 1390.00,  5000.00], [ 8.431170910E+000,  8.068179090E-003, 
              -2.770949210E-006,  4.313322430E-010, -2.506921460E-014,
              -1.966787710E+004, -1.861379160E+001] )
             ),
    note = "8/ 2/95 therm"
       )

species(name = "soot",
    atoms = " C:80 ",
    thermo = (
       NASA( [  200.00,  1000.00], [-3.108720700E-001,  4.403536900E-003, 
               1.903941200E-006, -6.385469700E-009,  2.989642500E-012,
              -1.086507900E+002,  1.113829500E+000] ),
       NASA( [ 1000.00,  5000.00], [ 1.455692400E+000,  1.717063800E-003, 
              -6.975841000E-007,  1.352831600E-010, -9.676490500E-015,
              -6.951280400E+002, -8.525684200E+000] )
             ),
    note = "p 4/83"
       )



#-------------------------------------------------------------------------------
#  Reaction data 
#-------------------------------------------------------------------------------

#  Reaction 1
#  ic8 reactions     ic8ket21 = oc8h15ooh 
# ---------------octane reactions---------------------------------------------- 
#  #1 
reaction(  "ic8h18 + h <=> c8h17 + h2",  [4.38000E+007, 2, 7760])

#  Reaction 2
#  #2 
reaction(  "ic8h18 + oh <=> c8h17 + h2o",  [3.47100E+007, 1.8, 278.2])

#  Reaction 3
#  #3 
reaction(  "ic8h18 + ho2 <=> c8h17 + h2o2",  [2.22800E+014, 0, 18950])

#  Reaction 4
#  #4 
reaction(  "ic8h18 + o2 <=> c8h17 + ho2",  [2.21900E+015, 0, 42904])

#  Reaction 5
#  #5 
reaction(  "c8h17 + o2 <=> c8h17oo",  [1.05300E+011, 0, 0])

#  Reaction 6
#  #6 
reaction(  "c8h17oo + o2 <=> ic8ket21 + oh",  [1.74000E+016, 0, 21233])

#  Reaction 7
#  original steps 
# c8h17oo=c8h16ooh         4.540e+13    0.00      21400.0 
# c8h16ooh+o2=c8h17o4      8.540e+12    0.00       00.0 
# c8h17o4=ic8ket21+oh      1.604e+11    0.00      17000 
#  alternative option 
# c8h17oo=c8h16ooh        3.825E+13  0.0  16233.0  
# c8h16ooh+o2=>ic8ket21+oh 8.022e+13    0.00      10000 
#  #7 
reaction(  "ic8ket21 <=> ch2o + c6h13co + oh",  [1.78400E+014, 0, 39100])

#  Reaction 8
#  #8 
reaction(  "c6h13co <=> c4h9 + c2h4 + co",  [4.92000E+016, 0, 40200])

#  Reaction 9
#  #9 
reaction(  "c4h9 <=> c3h6 + ch3",  [4.56000E+013, 0, 36900])

#  Reaction 10
#  #10 
reaction(  "c8h17 <=> c3h7 + c2h4 + c3h6",  [2.16100E+016, 0, 36600])

#  Reaction 11
# 6.164E+15  0.0   33600.0  to make a shift of lower T curve 
#  #11 
# c8h17 = c2h5 + c3h5 + c3h7               1.409E+16  0.0   36600.0     
# c8h17 = c4h9 + c3h5 + ch3                1.409E+15  0.0   31600.0 
# 1.409E+15  0.0   3.46E+04 
# ------------------------------------------------------ 
reaction(  "ic8h18 + c7h15-2 <=> nc7h16 + c8h17",  [5.01200E+010, 0, 0])

#  Reaction 12
# ic8h18+c7h15-2<=>nc7h16+c8h17                 5.012e33  -7.00     0.0 
#   rev /1.0e0  5.0  40000.0/ 
# ------------------------------------------------------ 
# #1 
reaction(  "nc7h16 + h <=> c7h15-2 + h2",  [4.38000E+007, 2, 4760])

#  Reaction 13
# #2 
reaction(  "nc7h16 + oh <=> c7h15-2 + h2o",  [1.35500E+010, 1.3, 690])

#  Reaction 14
# 4.850e+09  1.3   1690.0 
# #3 
reaction(  "nc7h16 + ho2 <=> c7h15-2 + h2o2",  [3.30000E+014, 0, 16950])

#  Reaction 15
# #4 
reaction(  "nc7h16 + o2 <=> c7h15-2 + ho2",  [1.25000E+014, 0, 37904])

#  Reaction 16
# 1.000e+15  0.0   37904.0 
# #5 
reaction(  "c7h15-2 + o2 <=> c7h15o2",  [2.34000E+012, 0, 0])

#  Reaction 17
# #6 
#  4.5e14 
reaction(  "c7h15o2 + o2 <=> c7ket12 + oh",  [3.29000E+014, 0, 18232.7])

#  Reaction 18
#  orginal steps 
#  c7h15o2               = c7h14ooh             4.540e+11  0.00  22100.0 
#  c7h14ooh + o2         = c7h15o4              1.168e+12  0.00      0.0 
#  c7h15o4               = c7ket12 + oh         8.115e+10  0.00  14000.0 
# #7 
reaction(  "c7ket12 <=> c5h11co + ch2o + oh",  [6.00500E+014, 0, 41100])

#  Reaction 19
# 6.671e+14  0.0   4.110e+4 
# #8 
reaction(  "c5h11co <=> c2h4 + c3h7 + co",  [9.84000E+015, 0, 40200])

#  Reaction 20
# #9 
reaction(  "c7h15-2 <=> c2h5 + c2h4 + c3h6",  [4.03800E+015, 0, 34600])

#  Reaction 21
# 14.09E+14  0.0   3.46E+04 
# ---------------------------------------------------------------------- 
reaction(  "c3h7 <=> c2h4 + ch3",  [9.60000E+013, 0, 30950])

#  Reaction 22
reaction(  "c3h7 <=> c3h6 + h",  [1.25000E+014, 0, 36900])

#  Reaction 23
reaction(  "c3h6 + ch3 <=> c3h5 + ch4",  [9.00000E+012, 0, 8480])

#  Reaction 24
reaction(  "c3h5 + o2 <=> c3h4 + ho2",  [6.00000E+011, 0, 10000])

#  Reaction 25
reaction(  "c3h4 + oh <=> c2h3 + ch2o",  [1.00000E+012, 0, 0])

#  Reaction 26
reaction(  "c3h4 + oh <=> c2h4 + hco",  [1.00000E+012, 0, 0])

#  Reaction 27
reaction(  "ch3 + ho2 <=> ch3o + oh",  [5.00000E+013, 0, 0])

#  Reaction 28
reaction(  "ch3 + oh <=> ch2 + h2o",  [7.50000E+006, 2, 5000])

#  Reaction 29
reaction(  "ch2 + oh <=> ch2o + h",  [2.50000E+013, 0, 0])

#  Reaction 30
reaction(  "ch2 + o2 <=> hco + oh",  [4.30000E+010, 0, -500])

#  Reaction 31
reaction(  "ch2 + o2 <=> co2 + h2",  [6.90000E+011, 0, 500])

#  Reaction 32
reaction(  "ch2 + o2 <=> co + h2o",  [2.00000E+010, 0, -1000])

#  Reaction 33
reaction(  "ch2 + o2 <=> ch2o + o",  [5.00000E+013, 0, 9000])

#  Reaction 34
reaction(  "ch2 + o2 <=> co2 + h + h",  [1.60000E+012, 0, 1000])

#  Reaction 35
reaction(  "ch2 + o2 <=> co + oh + h",  [8.60000E+010, 0, -500])

#  Reaction 36
reaction(  "ch3o + co <=> ch3 + co2",  [3.92500E+013, 0, 11800])

#  Reaction 37
#  co    + oh            = co2   + h            8.987e+07  1.38  5232.877   ! OldC7 